Circuit: * C:\Users\walln\Documents\MCI\Simulationsmethoden\Projekt\Abgabe\LTspice\DC_Motor_PI_100%_SW_abs_PI.asc

Warning: Multiple definitions of model "x6:sw" Type: Switch
Warning: Multiple definitions of model "x6:sw" Type: Switch
Warning: Multiple definitions of model "x6:sw" Type: Switch
Limiting fall time of source v3 to 0.5
WARNING: Node M- is floating.

WARNING: Less than two connections to node EFF.  This node is used by B3.
WARNING: Less than two connections to node RPM.  This node is used by E:X1:1.
WARNING: Less than two connections to node M-.  This node is used by E:X2:1.
WARNING: Less than two connections to node X2:RPM.  This node is used by E:X2:4.
Per .tran options, skipping operating point for transient analysis.
Ignoring empty pin current: Ix(x1:ic)
Ignoring empty pin current: Ix(x2:i.c.)
Ignoring empty pin current: Ix(x6:dir)
Ignoring empty pin current: Ix(x1:x3:in1)
Ignoring empty pin current: Ix(x1:x3:in2)
Ignoring empty pin current: Ix(x1:x4:in1)
Ignoring empty pin current: Ix(x1:x4:in2)
Ignoring empty pin current: Ix(x1:x1:in1)
Ignoring empty pin current: Ix(x1:x1:in2)
Ignoring empty pin current: Ix(x1:x2:in)
Ignoring empty pin current: Ix(x1:x2:i.c.)
Ignoring empty pin current: Ix(x1:x5:in)
Ignoring empty pin current: Ix(x2:x1:in1)
Ignoring empty pin current: Ix(x2:x1:in2)
Ignoring empty pin current: Ix(x2:x2:in1)
Ignoring empty pin current: Ix(x2:x2:in2)
Ignoring empty pin current: Ix(x2:x3:in1)
Ignoring empty pin current: Ix(x2:x3:in2)
Ignoring empty pin current: Ix(x2:x4:in)
Ignoring empty pin current: Ix(x2:x4:i.c.)
Ignoring empty pin current: Ix(x2:x5:in)

Date: Fri Jul 16 08:22:49 2021
Total elapsed time: 451.145 seconds.

tnom = 27
temp = 27
method = modified trap
totiter = 8790154
traniter = 8790154
tranpoints = 2519184
accept = 1853151
rejected = 666033
matrix size = 157
fillins = 97
solver = Alternate
Thread vector: 43.7/11.4[5] 5.9/2.5[5] 5.4/3.2[5] 1.7/1.2[5]  2592/500
Matrix Compiler1: 13.26 KB object code size  2.7/2.2/[1.5]
Matrix Compiler2: 14.53 KB object code size  1.5/2.4/[1.4]

