Circuit: * C:\Users\walln\Documents\MCI\Simulationsmethoden\Projekt\Abgabe\LTspice\DC_Motor_Dynamo.asc

WARNING: Node M- is floating.

WARNING: Less than two connections to node RPM.  This node is used by E:X1:1.
WARNING: Less than two connections to node REF.  This node is used by L:X2:1.
WARNING: Less than two connections to node M-.  This node is used by E:X2:1.
WARNING: Less than two connections to node X2:RPM.  This node is used by E:X2:4.
Per .tran options, skipping operating point for transient analysis.
Ignoring empty pin current: Ix(x1:ic)
Ignoring empty pin current: Ix(x2:i.c.)
Ignoring empty pin current: Ix(x1:x3:in1)
Ignoring empty pin current: Ix(x1:x3:in2)
Ignoring empty pin current: Ix(x1:x4:in1)
Ignoring empty pin current: Ix(x1:x4:in2)
Ignoring empty pin current: Ix(x1:x1:in1)
Ignoring empty pin current: Ix(x1:x1:in2)
Ignoring empty pin current: Ix(x1:x2:in)
Ignoring empty pin current: Ix(x1:x2:i.c.)
Ignoring empty pin current: Ix(x1:x5:in)
Ignoring empty pin current: Ix(x2:x1:in1)
Ignoring empty pin current: Ix(x2:x1:in2)
Ignoring empty pin current: Ix(x2:x2:in1)
Ignoring empty pin current: Ix(x2:x2:in2)
Ignoring empty pin current: Ix(x2:x3:in1)
Ignoring empty pin current: Ix(x2:x3:in2)
Ignoring empty pin current: Ix(x2:x4:in)
Ignoring empty pin current: Ix(x2:x4:i.c.)
Ignoring empty pin current: Ix(x2:x5:in)

Date: Fri Jul 16 08:12:18 2021
Total elapsed time: 28.859 seconds.

tnom = 27
temp = 27
method = modified trap
totiter = 525812
traniter = 525812
tranpoints = 221762
accept = 214831
rejected = 6931
matrix size = 71
fillins = 26
solver = Alternate
Thread vector: 3.1/2.7[2] 0.3/0.4[1] 1.0/0.6[2] 0.4/0.6[1]  2592/500
Matrix Compiler1: 3.23 KB object code size  0.7/0.5/[0.3]
Matrix Compiler2: 4.77 KB object code size  0.4/0.6/[0.3]

