Circuit: * C:\Users\walln\Documents\MCI\Simulationsmethoden\Projekt\Abgabe\LTspice\PI_Regler_Simulation.asc

Per .tran options, skipping operating point for transient analysis.

Date: Fri Jul 16 08:14:50 2021
Total elapsed time: 7.602 seconds.

tnom = 27
temp = 27
method = modified trap
totiter = 425369
traniter = 425369
tranpoints = 188262
accept = 148285
rejected = 39977
matrix size = 45
fillins = 26
solver = Alternate
Thread vector: 15.6/7.5[4] 3.9/1.8[4] 2.2/0.9[4] 0.5/0.8[1]  2592/500
Matrix Compiler1: 5.91 KB object code size  1.5/0.8/[0.5]
Matrix Compiler2: 5.31 KB object code size  0.6/0.7/[0.4]

